A71EV2A-x3379_A_201_1_A71EV2A-x0526+A+147+1__LIG
     RDKit          3D

 21 23  0  0  0  0  0  0  0  0999 V2000
    8.9700   14.3490   24.9180 O   0  0  0  0  0  0  0  0  0  0  0  0
    9.2830   13.4840   24.0910 C   0  0  0  0  0  0  0  0  0  0  0  0
    8.7430   12.1090   24.2100 C   0  0  0  0  0  0  0  0  0  0  0  0
    7.7110   11.6220   25.0820 C   0  0  0  0  0  0  0  0  0  0  0  0
    6.8530   12.1770   26.0360 C   0  0  0  0  0  0  0  0  0  0  0  0
    5.9640   11.3520   26.7110 C   0  0  0  0  0  0  0  0  0  0  0  0
    5.9170    9.9860   26.4480 C   0  0  0  0  0  0  0  0  0  0  0  0
    6.7510    9.4230   25.4890 C   0  0  0  0  0  0  0  0  0  0  0  0
    7.6370   10.2510   24.8150 C   0  0  0  0  0  0  0  0  0  0  0  0
    8.5610    9.9860   23.8500 N   0  0  0  0  0  0  0  0  0  0  0  0
    9.0020    8.6900   23.3600 C   0  0  0  0  0  0  0  0  0  0  0  0
    9.2210   11.1250   23.4440 N   0  0  0  0  0  0  0  0  0  0  0  0
   10.1470   13.7040   23.0910 N   0  0  0  0  0  0  0  0  0  0  0  0
   11.1980   14.7040   23.2880 C   0  0  1  0  0  0  0  0  0  0  0  0
   12.2830   14.1770   24.2090 C   0  0  0  0  0  0  0  0  0  0  0  0
   11.7400   14.9930   21.8950 C   0  0  0  0  0  0  0  0  0  0  0  0
   10.7600   15.6850   21.0100 C   0  0  0  0  0  0  0  0  0  0  0  0
   10.0500   16.7970   21.4620 N   0  0  0  0  0  0  0  0  0  0  0  0
    9.3090   17.1180   20.4660 C   0  0  0  0  0  0  0  0  0  0  0  0
    9.4560   16.3460   19.3650 O   0  0  0  0  0  0  0  0  0  0  0  0
   10.3750   15.4130   19.7540 C   0  0  0  0  0  0  0  0  0  0  0  0
 14 15  1  1
 16 14  1  0
 17 16  1  0
 17 21  2  0
 21 20  1  0
 20 19  1  0
 19 18  2  0
 18 17  1  0
 14 13  1  0
 13  2  1  0
  2  1  2  0
  3  2  1  0
  3 12  2  0
 12 10  1  0
 11 10  1  0
 10  9  1  0
  9  8  1  0
  8  7  2  0
  7  6  1  0
  6  5  2  0
  5  4  1  0
  4  3  1  0
  9  4  2  0
M  END
$$$$
