A71EV2A-x4334_A_201_2_A71EV2A-x0526+A+147+1__LIG
     RDKit          3D

 20 21  0  0  0  0  0  0  0  0999 V2000
    9.8450   16.9670   19.3810 O   0  0  0  0  0  0  0  0  0  0  0  0
   10.2370   15.8170   19.6310 C   0  0  0  0  0  0  0  0  0  0  0  0
   10.5540   14.9320   18.6990 N   0  0  0  0  0  0  0  0  0  0  0  0
   10.3270   15.3120   21.0590 C   0  0  1  0  0  0  0  0  0  0  0  0
   11.4840   15.9640   21.8270 C   0  0  0  0  0  0  0  0  0  0  0  0
   11.5250   15.4730   23.2750 C   0  0  0  0  0  0  0  0  0  0  0  0
   10.1620   15.6310   23.9410 C   0  0  0  0  0  0  0  0  0  0  0  0
    9.0010   15.5710   21.7660 C   0  0  0  0  0  0  0  0  0  0  0  0
    9.1020   15.0240   23.1190 N   0  0  0  0  0  0  0  0  0  0  0  0
    8.3880   13.9340   23.4560 C   0  0  0  0  0  0  0  0  0  0  0  0
    7.5100   13.4620   22.7380 O   0  0  0  0  0  0  0  0  0  0  0  0
    8.7750   13.2960   24.7730 C   0  0  0  0  0  0  0  0  0  0  0  0
    8.1980   11.9160   24.8520 C   0  0  0  0  0  0  0  0  0  0  0  0
    8.7670   10.8710   24.1410 C   0  0  0  0  0  0  0  0  0  0  0  0
    8.2700    9.5940   24.2630 C   0  0  0  0  0  0  0  0  0  0  0  0
    7.1920    9.3450   25.0930 C   0  0  0  0  0  0  0  0  0  0  0  0
    7.1200   11.6620   25.6860 C   0  0  0  0  0  0  0  0  0  0  0  0
    6.6230   10.3810   25.8170 C   0  0  0  0  0  0  0  0  0  0  0  0
    5.3150   10.0720   26.9540 S   0  0  0  0  0  0  0  0  0  0  0  0
    4.8560   11.6930   27.5670 C   0  0  0  0  0  0  0  0  0  0  0  0
 20 19  1  0
 19 18  1  0
 18 16  2  0
 16 15  1  0
 15 14  2  0
 14 13  1  0
 13 12  1  0
 12 10  1  0
 11 10  2  0
 10  9  1  0
  9  7  1  0
  7  6  1  0
  6  5  1  0
  5  4  1  0
  4  2  1  6
  3  2  1  0
  2  1  2  0
  8  4  1  0
  9  8  1  0
 17 13  2  0
 18 17  1  0
M  END
$$$$
