A71EV2A-x3279_A_201_1_A71EV2A-x0526+A+147+1__LIG
     RDKit          3D

 16 17  0  0  0  0  0  0  0  0999 V2000
    5.9840   10.6020   26.6910 C   0  0  0  0  0  0  0  0  0  0  0  0
    7.1300   10.9260   25.7640 C   0  0  0  0  0  0  0  0  0  0  0  0
    7.7030    9.9270   24.9810 C   0  0  0  0  0  0  0  0  0  0  0  0
    8.7400   10.1850   24.0930 C   0  0  0  0  0  0  0  0  0  0  0  0
    9.4150    9.0700   23.3380 C   0  0  0  0  0  0  0  0  0  0  0  0
    7.6380   12.2230   25.6460 C   0  0  0  0  0  0  0  0  0  0  0  0
    8.6810   12.5200   24.7600 C   0  0  0  0  0  0  0  0  0  0  0  0
    9.3580   13.8680   24.7380 C   0  0  0  0  0  0  0  0  0  0  0  0
    9.1890   11.4910   23.9770 C   0  0  0  0  0  0  0  0  0  0  0  0
    7.0940   13.2620   26.4730 N   0  0  0  0  0  0  0  0  0  0  0  0
    6.4030   14.3590   26.0290 C   0  0  0  0  0  0  0  0  0  0  0  0
    6.1330   14.5270   24.7030 N   0  0  0  0  0  0  0  0  0  0  0  0
    5.3480   15.6300   24.6980 N   0  0  0  0  0  0  0  0  0  0  0  0
    4.7940   16.1050   23.4380 C   0  0  0  0  0  0  0  0  0  0  0  0
    5.1200   16.1680   25.9760 C   0  0  0  0  0  0  0  0  0  0  0  0
    5.7780   15.3690   26.8690 C   0  0  0  0  0  0  0  0  0  0  0  0
  5  4  1  0
  4  9  1  0
  9  7  2  0
  8  7  1  0
  7  6  1  0
 10  6  1  0
 11 10  1  0
 11 16  1  0
 16 15  2  0
 15 13  1  0
 14 13  1  0
 13 12  1  0
 12 11  2  0
  6  2  2  0
  2  1  1  0
  3  2  1  0
  4  3  2  0
M  END
$$$$
