A71EV2A-x3210_A_201_1_A71EV2A-x0526+A+147+1__LIG
     RDKit          3D

 21 23  0  0  0  0  0  0  0  0999 V2000
    7.4700   13.5970   22.7930 O   0  0  0  0  0  0  0  0  0  0  0  0
    8.1990   14.1420   23.6130 C   0  0  0  0  0  0  0  0  0  0  0  0
    9.0010   15.1760   23.2760 N   0  0  0  0  0  0  0  0  0  0  0  0
   10.0390   15.7900   24.1160 C   0  0  0  0  0  0  0  0  0  0  0  0
   11.4060   15.6640   23.4600 C   0  0  0  0  0  0  0  0  0  0  0  0
   11.3760   16.1290   21.9970 C   0  0  0  0  0  0  0  0  0  0  0  0
    8.9260   15.7740   21.9400 C   0  0  0  0  0  0  0  0  0  0  0  0
   10.2310   15.4870   21.1950 C   0  0  1  0  0  0  0  0  0  0  0  0
   10.2100   15.9790   19.7570 C   0  0  0  0  0  0  0  0  0  0  0  0
    9.8730   17.1360   19.4800 O   0  0  0  0  0  0  0  0  0  0  0  0
   10.5700   15.0960   18.8390 N   0  0  0  0  0  0  0  0  0  0  0  0
    8.2080   13.6990   25.0660 C   0  0  0  0  0  0  0  0  0  0  0  0
    7.6980   12.2830   25.2350 C   0  0  0  0  0  0  0  0  0  0  0  0
    8.2880   11.2030   24.5690 C   0  0  0  0  0  0  0  0  0  0  0  0
    9.3680   11.1390   23.7530 N   0  0  0  0  0  0  0  0  0  0  0  0
    9.6330    9.8550   23.3720 N   0  0  0  0  0  0  0  0  0  0  0  0
    8.7120    9.1030   23.9440 C   0  0  0  0  0  0  0  0  0  0  0  0
    7.8200    9.8830   24.7250 C   0  0  0  0  0  0  0  0  0  0  0  0
    6.7270    9.6480   25.5640 C   0  0  0  0  0  0  0  0  0  0  0  0
    6.1380   10.7090   26.2410 C   0  0  0  0  0  0  0  0  0  0  0  0
    6.6220   12.0020   26.0820 C   0  0  0  0  0  0  0  0  0  0  0  0
 11  9  1  0
 10  9  2  0
  8  9  1  6
  8  6  1  0
  6  5  1  0
  5  4  1  0
  4  3  1  0
  3  2  1  0
  2  1  2  0
 12  2  1  0
 13 12  1  0
 13 21  1  0
 21 20  2  0
 20 19  1  0
 19 18  2  0
 18 17  1  0
 17 16  2  0
 16 15  1  0
 15 14  1  0
 14 13  2  0
 18 14  1  0
  7  3  1  0
  8  7  1  0
M  END
$$$$
