A71EV2A-x4298_A_201_1_A71EV2A-x0526+A+147+1__LIG
     RDKit          3D

 20 21  0  0  0  0  0  0  0  0999 V2000
    9.7610   16.8500   19.4170 O   0  0  0  0  0  0  0  0  0  0  0  0
   10.1150   15.6960   19.6870 C   0  0  0  0  0  0  0  0  0  0  0  0
   10.5380   14.8320   18.7700 N   0  0  0  0  0  0  0  0  0  0  0  0
   10.0710   15.1780   21.1150 C   0  0  1  0  0  0  0  0  0  0  0  0
   11.2070   15.7540   21.9800 C   0  0  0  0  0  0  0  0  0  0  0  0
   11.1840   15.1340   23.3800 C   0  0  0  0  0  0  0  0  0  0  0  0
    9.8180   15.3350   24.0420 C   0  0  0  0  0  0  0  0  0  0  0  0
    8.7440   15.4870   21.8170 C   0  0  0  0  0  0  0  0  0  0  0  0
    8.7350   14.8810   23.1550 N   0  0  0  0  0  0  0  0  0  0  0  0
    7.9430   13.8000   23.4050 C   0  0  0  0  0  0  0  0  0  0  0  0
    7.2710   13.2880   22.5300 O   0  0  0  0  0  0  0  0  0  0  0  0
    7.8630   13.3920   24.7030 N   0  0  0  0  0  0  0  0  0  0  0  0
    7.3160   12.1910   25.1790 C   0  0  0  0  0  0  0  0  0  0  0  0
    6.3170   12.0830   26.1430 C   0  0  0  0  0  0  0  0  0  0  0  0
    5.8780   10.8110   26.4810 C   0  0  0  0  0  0  0  0  0  0  0  0
    6.4320    9.7030   25.8690 C   0  0  0  0  0  0  0  0  0  0  0  0
    7.8810   11.1350   24.5910 N   0  0  0  0  0  0  0  0  0  0  0  0
    7.4470    9.9290   24.9370 C   0  0  0  0  0  0  0  0  0  0  0  0
    7.9480    8.8400   24.3260 O   0  0  0  0  0  0  0  0  0  0  0  0
    9.1740    8.9780   23.5930 C   0  0  0  0  0  0  0  0  0  0  0  0
 20 19  1  0
 19 18  1  0
 18 16  2  0
 16 15  1  0
 15 14  2  0
 14 13  1  0
 13 12  1  0
 12 10  1  0
 11 10  2  0
 10  9  1  0
  9  7  1  0
  7  6  1  0
  6  5  1  0
  5  4  1  0
  4  2  1  6
  3  2  1  0
  2  1  2  0
  8  4  1  0
  9  8  1  0
 17 13  2  0
 18 17  1  0
M  END
$$$$
