A71EV2A-x4018_A_201_1_A71EV2A-x0526+A+147+1__LIG
     RDKit          3D

 21 22  0  0  0  0  0  0  0  0999 V2000
    9.6880   16.8340   19.3560 O   0  0  0  0  0  0  0  0  0  0  0  0
   10.1010   15.7120   19.6590 C   0  0  0  0  0  0  0  0  0  0  0  0
   10.6160   14.8710   18.7770 N   0  0  0  0  0  0  0  0  0  0  0  0
   10.0480   15.2170   21.0960 C   0  0  1  0  0  0  0  0  0  0  0  0
   11.1580   15.8980   21.9020 C   0  0  0  0  0  0  0  0  0  0  0  0
   11.6180   15.0990   23.1040 C   0  0  0  0  0  0  0  0  0  0  0  0
   10.6820   15.1550   24.2910 C   0  0  0  0  0  0  0  0  0  0  0  0
    8.6340   15.4250   21.6570 C   0  0  0  0  0  0  0  0  0  0  0  0
    8.5020   15.6500   23.1640 C   0  0  0  0  0  0  0  0  0  0  0  0
    9.3080   14.7380   23.9910 N   0  0  0  0  0  0  0  0  0  0  0  0
    8.8230   13.6230   24.5730 C   0  0  0  0  0  0  0  0  0  0  0  0
    9.4050   13.0620   25.4940 O   0  0  0  0  0  0  0  0  0  0  0  0
    7.4860   13.1040   24.0870 C   0  0  0  0  0  0  0  0  0  0  0  0
    7.0080   12.0010   25.0000 C   0  0  0  0  0  0  0  0  0  0  0  0
    7.4200   10.6830   24.7890 C   0  0  0  0  0  0  0  0  0  0  0  0
    8.4140   10.5310   23.8610 O   0  0  0  0  0  0  0  0  0  0  0  0
    9.1890    9.3370   23.8880 C   0  0  0  0  0  0  0  0  0  0  0  0
    6.0720   12.2520   26.0000 C   0  0  0  0  0  0  0  0  0  0  0  0
    5.5230   11.2140   26.7310 C   0  0  0  0  0  0  0  0  0  0  0  0
    5.8890    9.9160   26.4650 C   0  0  0  0  0  0  0  0  0  0  0  0
    6.8420    9.6400   25.4960 C   0  0  0  0  0  0  0  0  0  0  0  0
 17 16  1  0
 16 15  1  0
 15 21  2  0
 21 20  1  0
 20 19  2  0
 19 18  1  0
 18 14  2  0
 15 14  1  0
 14 13  1  0
 13 11  1  0
 12 11  2  0
 11 10  1  0
 10  7  1  0
  7  6  1  0
  6  5  1  0
  5  4  1  0
  4  2  1  6
  3  2  1  0
  2  1  2  0
  8  4  1  0
  9  8  1  0
 10  9  1  0
M  END
$$$$
