A71EV2A-x4020_A_201_1_A71EV2A-x0526+A+147+1__LIG
     RDKit          3D

 19 20  0  0  0  0  0  0  0  0999 V2000
    9.7000   16.9900   19.4230 O   0  0  0  0  0  0  0  0  0  0  0  0
   10.0660   15.8410   19.6840 C   0  0  0  0  0  0  0  0  0  0  0  0
   10.4210   14.9700   18.7470 N   0  0  0  0  0  0  0  0  0  0  0  0
   10.1180   15.3430   21.1160 C   0  0  1  0  0  0  0  0  0  0  0  0
   11.2650   16.0040   21.9070 C   0  0  0  0  0  0  0  0  0  0  0  0
   11.3020   15.5020   23.3510 C   0  0  0  0  0  0  0  0  0  0  0  0
    9.9630   15.7340   24.0140 C   0  0  0  0  0  0  0  0  0  0  0  0
    8.8020   15.6650   21.8260 C   0  0  0  0  0  0  0  0  0  0  0  0
    8.8720   15.1660   23.2010 N   0  0  0  0  0  0  0  0  0  0  0  0
    8.1180   14.1070   23.5550 C   0  0  0  0  0  0  0  0  0  0  0  0
    7.2940   13.6110   22.8020 O   0  0  0  0  0  0  0  0  0  0  0  0
    8.3770   13.5480   24.9420 C   0  0  0  0  0  0  0  0  0  0  0  0
    7.9280   12.1140   25.0190 C   0  0  0  0  0  0  0  0  0  0  0  0
    6.8480   11.7380   25.8070 C   0  0  0  0  0  0  0  0  0  0  0  0
    6.4180   10.4210   25.8160 C   0  0  0  0  0  0  0  0  0  0  0  0
    7.1000    9.4670   25.0670 C   0  0  0  0  0  0  0  0  0  0  0  0
    8.5880   11.1440   24.2700 C   0  0  0  0  0  0  0  0  0  0  0  0
    8.2010    9.8170   24.2950 C   0  0  0  0  0  0  0  0  0  0  0  0
    8.9950    8.7710   23.5490 C   0  0  0  0  0  0  0  0  0  0  0  0
 19 18  1  0
 18 16  2  0
 16 15  1  0
 15 14  2  0
 14 13  1  0
 13 12  1  0
 12 10  1  0
 11 10  2  0
 10  9  1  0
  9  7  1  0
  7  6  1  0
  6  5  1  0
  5  4  1  0
  4  2  1  6
  3  2  1  0
  2  1  2  0
  8  4  1  0
  9  8  1  0
 17 13  2  0
 18 17  1  0
M  END
$$$$
