A71EV2A-x3992_A_201_1_A71EV2A-x0526+A+147+1__LIG
     RDKit          3D

 20 21  0  0  0  0  0  0  0  0999 V2000
    9.9130   16.7700   19.6520 O   0  0  0  0  0  0  0  0  0  0  0  0
   10.4490   15.6700   19.8000 C   0  0  0  0  0  0  0  0  0  0  0  0
   10.7690   14.8790   18.7780 N   0  0  0  0  0  0  0  0  0  0  0  0
   10.6590   15.0790   21.1850 C   0  0  1  0  0  0  0  0  0  0  0  0
   11.3240   16.0220   22.2120 C   0  0  0  0  0  0  0  0  0  0  0  0
   11.0450   15.3300   23.5440 C   0  0  0  0  0  0  0  0  0  0  0  0
    9.3360   14.7710   21.8970 C   0  0  0  0  0  0  0  0  0  0  0  0
    9.7810   14.6120   23.2850 N   0  0  0  0  0  0  0  0  0  0  0  0
    9.1850   13.8140   24.2170 C   0  0  0  0  0  0  0  0  0  0  0  0
    9.7120   13.6250   25.3070 O   0  0  0  0  0  0  0  0  0  0  0  0
    8.0120   13.2200   23.8400 N   0  0  0  0  0  0  0  0  0  0  0  0
    7.3850   12.2420   24.6730 C   0  0  0  0  0  0  0  0  0  0  0  0
    7.6860   10.8800   24.5090 C   0  0  0  0  0  0  0  0  0  0  0  0
    8.6970   10.6090   23.6240 O   0  0  0  0  0  0  0  0  0  0  0  0
    9.1090    9.2440   23.4510 C   0  0  0  0  0  0  0  0  0  0  0  0
    6.4170   12.5990   25.6110 C   0  0  0  0  0  0  0  0  0  0  0  0
    5.9530   14.2590   25.7740 Cl  0  0  0  0  0  0  0  0  0  0  0  0
    5.7510   11.6580   26.3700 C   0  0  0  0  0  0  0  0  0  0  0  0
    6.0320   10.3170   26.1780 C   0  0  0  0  0  0  0  0  0  0  0  0
    6.9920    9.9250   25.2470 C   0  0  0  0  0  0  0  0  0  0  0  0
 15 14  1  0
 14 13  1  0
 13 20  2  0
 20 19  1  0
 19 18  2  0
 18 16  1  0
 17 16  1  0
 16 12  2  0
 13 12  1  0
 12 11  1  0
 11  9  1  0
 10  9  2  0
  9  8  1  0
  8  6  1  0
  6  5  1  0
  5  4  1  0
  4  2  1  6
  3  2  1  0
  2  1  2  0
  7  4  1  0
  8  7  1  0
M  END
$$$$
