A71EV2A-x4315_A_201_1_A71EV2A-x0526+A+147+1__LIG
     RDKit          3D

 20 22  0  0  0  0  0  0  0  0999 V2000
   11.0730   14.7270   25.2170 O   0  0  0  0  0  0  0  0  0  0  0  0
   10.9730   14.8830   24.0070 C   0  0  0  0  0  0  0  0  0  0  0  0
   12.1470   15.3920   23.2110 C   0  0  0  0  0  0  0  0  0  0  0  0
   11.8500   15.8790   21.7860 C   0  0  0  0  0  0  0  0  0  0  0  0
    9.8110   14.6700   23.3430 N   0  0  0  0  0  0  0  0  0  0  0  0
    9.5350   14.9430   21.9260 C   0  0  0  0  0  0  0  0  0  0  0  0
   10.8260   14.9620   21.1010 C   0  0  1  0  0  0  0  0  0  0  0  0
   10.4600   15.4500   19.7070 C   0  0  0  0  0  0  0  0  0  0  0  0
    9.8310   16.5010   19.5390 O   0  0  0  0  0  0  0  0  0  0  0  0
   10.8160   14.6620   18.7100 N   0  0  0  0  0  0  0  0  0  0  0  0
    8.6280   14.2410   24.0890 C   0  0  0  0  0  0  0  0  0  0  0  0
    8.4560   12.7400   24.1740 C   0  0  0  0  0  0  0  0  0  0  0  0
    7.4560   12.2020   24.9810 C   0  0  0  0  0  0  0  0  0  0  0  0
    6.6000   12.8770   25.8220 O   0  0  0  0  0  0  0  0  0  0  0  0
    5.8570   11.8520   26.5020 C   0  0  0  0  0  0  0  0  0  0  0  0
    6.3610   10.5710   26.0910 O   0  0  0  0  0  0  0  0  0  0  0  0
    7.3520   10.8410   25.1690 C   0  0  0  0  0  0  0  0  0  0  0  0
    8.1920    9.9540   24.5220 C   0  0  0  0  0  0  0  0  0  0  0  0
    9.1680   10.4720   23.6810 C   0  0  0  0  0  0  0  0  0  0  0  0
    9.3080   11.8480   23.5210 C   0  0  0  0  0  0  0  0  0  0  0  0
 10  8  1  0
  9  8  2  0
  7  8  1  6
  7  4  1  0
  4  3  1  0
  3  2  1  0
  2  1  2  0
  5  2  1  0
 11  5  1  0
 12 11  1  0
 12 20  2  0
 20 19  1  0
 19 18  2  0
 18 17  1  0
 17 13  2  0
 13 12  1  0
 14 13  1  0
 15 14  1  0
 16 15  1  0
 17 16  1  0
  6  5  1  0
  7  6  1  0
M  END
$$$$
