A71EV2A-x4291_A_201_2_A71EV2A-x0526+A+147+1__LIG
     RDKit          3D

 21 22  0  0  0  0  0  0  0  0999 V2000
    8.6530    9.9130   24.3090 O   0  0  0  0  0  0  0  0  0  0  0  0
    7.7620   10.5030   24.9580 C   0  0  0  0  0  0  0  0  0  0  0  0
    6.7100    9.7940   25.5280 N   0  0  0  0  0  0  0  0  0  0  0  0
    5.7000   10.3610   26.2630 C   0  0  0  0  0  0  0  0  0  0  0  0
    4.6160    9.4580   26.7650 C   0  0  0  0  0  0  0  0  0  0  0  0
    7.7340   11.9270   25.1930 C   0  0  0  0  0  0  0  0  0  0  0  0
    6.7200   12.5100   25.9420 C   0  0  0  0  0  0  0  0  0  0  0  0
    6.6560   13.9590   26.3050 C   0  0  0  0  0  0  0  0  0  0  0  0
    5.7090   11.6990   26.4630 C   0  0  0  0  0  0  0  0  0  0  0  0
    8.8670   12.7510   24.6340 C   0  0  0  0  0  0  0  0  0  0  0  0
    8.4680   13.5360   23.4000 C   0  0  0  0  0  0  0  0  0  0  0  0
    7.5340   13.1770   22.7150 O   0  0  0  0  0  0  0  0  0  0  0  0
    9.1970   14.6290   23.0880 N   0  0  0  0  0  0  0  0  0  0  0  0
    9.0400   15.2940   21.7910 C   0  0  0  0  0  0  0  0  0  0  0  0
   10.3410   15.1490   20.9960 C   0  0  1  0  0  0  0  0  0  0  0  0
   10.2610   15.6900   19.5790 C   0  0  0  0  0  0  0  0  0  0  0  0
    9.8230   16.8260   19.3540 O   0  0  0  0  0  0  0  0  0  0  0  0
   10.6480   14.8540   18.6160 N   0  0  0  0  0  0  0  0  0  0  0  0
   11.4780   15.7910   21.8150 C   0  0  0  0  0  0  0  0  0  0  0  0
   11.5960   15.1290   23.1910 C   0  0  0  0  0  0  0  0  0  0  0  0
   10.2660   15.1800   23.9330 C   0  0  0  0  0  0  0  0  0  0  0  0
  5  4  1  0
  4  9  2  0
  9  7  1  0
  8  7  1  0
  7  6  2  0
 10  6  1  0
 11 10  1  0
 12 11  2  0
 13 11  1  0
 13 21  1  0
 21 20  1  0
 20 19  1  0
 19 15  1  0
 15 16  1  6
 18 16  1  0
 17 16  2  0
 15 14  1  0
 14 13  1  0
  6  2  1  0
  2  1  2  0
  3  2  1  0
  4  3  1  0
M  END
$$$$
