A71EV2A-x3488_A_201_1_A71EV2A-x0526+A+147+1__LIG
     RDKit          3D

 24 25  0  0  0  0  0  0  0  0999 V2000
    9.4890   16.3760   19.4390 O   0  0  0  0  0  0  0  0  0  0  0  0
   10.2910   15.4630   19.7080 C   0  0  0  0  0  0  0  0  0  0  0  0
   11.0350   14.8680   18.7880 N   0  0  0  0  0  0  0  0  0  0  0  0
   10.4510   15.0160   21.1370 C   0  0  0  0  0  0  0  0  0  0  0  0
   11.7020   14.9390   21.7350 C   0  0  0  0  0  0  0  0  0  0  0  0
   11.8230   14.5740   23.0660 C   0  0  0  0  0  0  0  0  0  0  0  0
   10.7020   14.2660   23.8140 C   0  0  0  0  0  0  0  0  0  0  0  0
    9.3200   14.6840   21.8780 C   0  0  0  0  0  0  0  0  0  0  0  0
    9.4540   14.3060   23.2060 C   0  0  0  0  0  0  0  0  0  0  0  0
    8.2940   13.9860   23.9080 O   0  0  0  0  0  0  0  0  0  0  0  0
    8.0590   12.6660   24.2480 C   0  0  0  0  0  0  0  0  0  0  0  0
    8.7140   11.6020   23.6400 C   0  0  0  0  0  0  0  0  0  0  0  0
    8.4050   10.2910   23.9880 C   0  0  0  0  0  0  0  0  0  0  0  0
    9.1150    9.1240   23.3410 C   0  0  0  0  0  0  0  0  0  0  0  0
    7.4380   10.0790   24.9620 C   0  0  0  0  0  0  0  0  0  0  0  0
    6.8100   11.1380   25.5840 C   0  0  0  0  0  0  0  0  0  0  0  0
    5.6510   10.7990   26.8290 Cl  0  0  0  0  0  0  0  0  0  0  0  0
    7.0900   12.4570   25.2420 C   0  0  0  0  0  0  0  0  0  0  0  0
    6.4160   13.5670   25.8680 N   0  0  0  0  0  0  0  0  0  0  0  0
    7.0800   14.5970   26.4670 C   0  0  0  0  0  0  0  0  0  0  0  0
    8.2810   14.5810   26.7230 O   0  0  0  0  0  0  0  0  0  0  0  0
    6.2840   15.8540   26.7450 C   0  0  0  0  0  0  0  0  0  0  0  0
    4.9310   15.6940   26.3810 O   0  0  0  0  0  0  0  0  0  0  0  0
    4.0820   16.6090   27.0750 C   0  0  0  0  0  0  0  0  0  0  0  0
 24 23  1  0
 23 22  1  0
 22 20  1  0
 21 20  2  0
 20 19  1  0
 19 18  1  0
 18 16  1  0
 17 16  1  0
 16 15  2  0
 15 13  1  0
 14 13  1  0
 13 12  2  0
 12 11  1  0
 18 11  2  0
 11 10  1  0
 10  9  1  0
  9  7  1  0
  7  6  2  0
  6  5  1  0
  5  4  2  0
  4  2  1  0
  3  2  1  0
  2  1  2  0
  8  4  1  0
  9  8  2  0
M  END
$$$$
