A71EV2A-x3575_A_201_1_A71EV2A-x0526+A+147+1__LIG
     RDKit          3D

 22 23  0  0  0  0  0  0  0  0999 V2000
    9.8760   16.9870   19.5030 O   0  0  0  0  0  0  0  0  0  0  0  0
   10.2540   15.8290   19.7270 C   0  0  0  0  0  0  0  0  0  0  0  0
   10.5820   14.9760   18.7750 N   0  0  0  0  0  0  0  0  0  0  0  0
   10.3890   15.3110   21.1480 C   0  0  1  0  0  0  0  0  0  0  0  0
   11.5120   16.0370   21.9120 C   0  0  0  0  0  0  0  0  0  0  0  0
   11.6000   15.6090   23.3840 C   0  0  0  0  0  0  0  0  0  0  0  0
   10.2380   15.6210   24.0580 C   0  0  0  0  0  0  0  0  0  0  0  0
    9.0780   15.4890   21.9030 C   0  0  0  0  0  0  0  0  0  0  0  0
    9.2460   14.9100   23.2370 N   0  0  0  0  0  0  0  0  0  0  0  0
    8.5820   13.7850   23.5680 C   0  0  0  0  0  0  0  0  0  0  0  0
    7.6940   13.3220   22.8680 O   0  0  0  0  0  0  0  0  0  0  0  0
    8.9940   13.1300   24.8710 C   0  0  0  0  0  0  0  0  0  0  0  0
    8.2230   11.8530   25.0930 C   0  0  0  0  0  0  0  0  0  0  0  0
    7.0870   11.8230   25.9020 C   0  0  0  0  0  0  0  0  0  0  0  0
    6.6590   12.9940   26.5030 O   0  0  0  0  0  0  0  0  0  0  0  0
    5.6540   13.7530   25.8210 C   0  0  0  0  0  0  0  0  0  0  0  0
    8.6260   10.6690   24.4760 C   0  0  0  0  0  0  0  0  0  0  0  0
    7.9430    9.4880   24.6940 C   0  0  0  0  0  0  0  0  0  0  0  0
    6.8300    9.4660   25.5170 C   0  0  0  0  0  0  0  0  0  0  0  0
    6.3730   10.6410   26.1160 C   0  0  0  0  0  0  0  0  0  0  0  0
    5.1250   10.6290   26.8270 C   0  0  0  0  0  0  0  0  0  0  0  0
    4.1330   10.6690   27.3910 N   0  0  0  0  0  0  0  0  0  0  0  0
 16 15  1  0
 15 14  1  0
 14 20  2  0
 21 20  1  0
 22 21  3  0
 20 19  1  0
 19 18  2  0
 18 17  1  0
 17 13  2  0
 14 13  1  0
 13 12  1  0
 12 10  1  0
 11 10  2  0
 10  9  1  0
  9  7  1  0
  7  6  1  0
  6  5  1  0
  5  4  1  0
  4  2  1  6
  3  2  1  0
  2  1  2  0
  8  4  1  0
  9  8  1  0
M  END
$$$$
