A71EV2A-x4304_A_201_2_A71EV2A-x0526+A+147+1__LIG
     RDKit          3D

 25 26  0  0  0  0  0  0  0  0999 V2000
    9.8230   17.1050   19.6880 O   0  0  0  0  0  0  0  0  0  0  0  0
   10.1400   15.9200   19.7770 C   0  0  0  0  0  0  0  0  0  0  0  0
   10.4390   15.1800   18.7230 N   0  0  0  0  0  0  0  0  0  0  0  0
   10.2080   15.2240   21.1250 C   0  0  1  0  0  0  0  0  0  0  0  0
   11.2240   15.9130   22.0490 C   0  0  0  0  0  0  0  0  0  0  0  0
   11.2570   15.2730   23.4410 C   0  0  0  0  0  0  0  0  0  0  0  0
    9.8650   15.2330   24.0490 C   0  0  0  0  0  0  0  0  0  0  0  0
    8.8360   15.2310   21.8110 C   0  0  0  0  0  0  0  0  0  0  0  0
    8.9120   14.5920   23.1290 N   0  0  0  0  0  0  0  0  0  0  0  0
    7.9820   13.6650   23.4970 C   0  0  0  0  0  0  0  0  0  0  0  0
    7.0120   13.4130   22.7920 O   0  0  0  0  0  0  0  0  0  0  0  0
    8.1740   13.0770   24.7060 N   0  0  0  0  0  0  0  0  0  0  0  0
    7.3980   12.0460   25.2720 C   0  0  0  0  0  0  0  0  0  0  0  0
    7.7020   10.7380   24.8780 C   0  0  0  0  0  0  0  0  0  0  0  0
    8.6660   10.6430   23.9100 O   0  0  0  0  0  0  0  0  0  0  0  0
    9.3430    9.4030   23.7600 C   0  0  0  0  0  0  0  0  0  0  0  0
    6.3920   12.2610   26.2040 C   0  0  0  0  0  0  0  0  0  0  0  0
    5.6930   11.1820   26.7330 C   0  0  0  0  0  0  0  0  0  0  0  0
    6.0240    9.8890   26.3580 C   0  0  0  0  0  0  0  0  0  0  0  0
    7.0180    9.6650   25.4240 C   0  0  0  0  0  0  0  0  0  0  0  0
    4.5650   11.4270   27.5680 N   0  0  0  0  0  0  0  0  0  0  0  0
    4.5490   11.1730   29.1750 S   0  0  0  0  0  0  0  0  0  0  0  0
    5.2770   12.2530   29.7670 O   0  0  0  0  0  0  0  0  0  0  0  0
    4.9970    9.8300   29.3890 O   0  0  0  0  0  0  0  0  0  0  0  0
    2.8720   11.2860   29.6800 C   0  0  0  0  0  0  0  0  0  0  0  0
 16 15  1  0
 15 14  1  0
 14 20  2  0
 20 19  1  0
 19 18  2  0
 21 18  1  0
 22 21  1  0
 25 22  1  0
 23 22  2  0
 24 22  2  0
 18 17  1  0
 17 13  2  0
 14 13  1  0
 13 12  1  0
 12 10  1  0
 11 10  2  0
 10  9  1  0
  9  7  1  0
  7  6  1  0
  6  5  1  0
  5  4  1  0
  4  2  1  6
  3  2  1  0
  2  1  2  0
  8  4  1  0
  9  8  1  0
M  END
$$$$
