A71EV2A-x3483_A_201_1_A71EV2A-x0526+A+147+1__LIG
     RDKit          3D

 21 22  0  0  0  0  0  0  0  0999 V2000
    9.8910   16.9330   19.3880 O   0  0  0  0  0  0  0  0  0  0  0  0
   10.2560   15.7760   19.6460 C   0  0  0  0  0  0  0  0  0  0  0  0
   10.6140   14.9080   18.7150 N   0  0  0  0  0  0  0  0  0  0  0  0
   10.2980   15.2670   21.0770 C   0  0  1  0  0  0  0  0  0  0  0  0
   11.3550   16.0110   21.9180 C   0  0  0  0  0  0  0  0  0  0  0  0
   11.1760   15.8140   23.4290 C   0  0  0  0  0  0  0  0  0  0  0  0
   10.2520   14.6630   23.7260 C   0  0  0  0  0  0  0  0  0  0  0  0
    8.9210   15.3910   21.7310 C   0  0  0  0  0  0  0  0  0  0  0  0
    8.9330   14.8350   23.0910 N   0  0  0  0  0  0  0  0  0  0  0  0
    8.0460   13.8490   23.4150 C   0  0  0  0  0  0  0  0  0  0  0  0
    7.3310   13.3260   22.5740 O   0  0  0  0  0  0  0  0  0  0  0  0
    7.8880   13.6060   24.7420 N   0  0  0  0  0  0  0  0  0  0  0  0
    7.1060   12.5670   25.2930 C   0  0  0  0  0  0  0  0  0  0  0  0
    5.9370   12.8050   26.0160 C   0  0  0  0  0  0  0  0  0  0  0  0
    5.2830   11.7470   26.6330 C   0  0  0  0  0  0  0  0  0  0  0  0
    5.7710   10.4720   26.5170 C   0  0  0  0  0  0  0  0  0  0  0  0
    6.9100   10.2250   25.7740 C   0  0  0  0  0  0  0  0  0  0  0  0
    7.5980   11.2620   25.1520 C   0  0  0  0  0  0  0  0  0  0  0  0
    8.8320   10.9260   24.3550 C   0  0  0  0  0  0  0  0  0  0  0  0
    9.1410    9.5650   24.5050 O   0  0  0  0  0  0  0  0  0  0  0  0
    9.5770    9.0050   23.2970 C   0  0  0  0  0  0  0  0  0  0  0  0
 21 20  1  0
 20 19  1  0
 19 18  1  0
 18 17  1  0
 17 16  2  0
 16 15  1  0
 15 14  2  0
 14 13  1  0
 18 13  2  0
 13 12  1  0
 12 10  1  0
 11 10  2  0
 10  9  1  0
  9  7  1  0
  7  6  1  0
  6  5  1  0
  5  4  1  0
  4  2  1  6
  3  2  1  0
  2  1  2  0
  8  4  1  0
  9  8  1  0
M  END
$$$$
