A71EV2A-x3054_A_201_1_A71EV2A-x0526+A+147+1__LIG
     RDKit          3D

 19 20  0  0  0  0  0  0  0  0999 V2000
    9.8610   17.0580   19.5310 O   0  0  0  0  0  0  0  0  0  0  0  0
   10.1390   15.8800   19.7720 C   0  0  0  0  0  0  0  0  0  0  0  0
   10.5050   15.0200   18.8360 N   0  0  0  0  0  0  0  0  0  0  0  0
   10.1140   15.3450   21.1930 C   0  0  1  0  0  0  0  0  0  0  0  0
   11.3080   15.8760   21.9990 C   0  0  0  0  0  0  0  0  0  0  0  0
   11.2380   15.4780   23.4760 C   0  0  0  0  0  0  0  0  0  0  0  0
    9.8930   15.8570   24.0730 C   0  0  0  0  0  0  0  0  0  0  0  0
    8.8380   15.8310   21.8830 C   0  0  0  0  0  0  0  0  0  0  0  0
    8.8010   15.3090   23.2510 N   0  0  0  0  0  0  0  0  0  0  0  0
    8.2980   14.0510   23.4380 C   0  0  0  0  0  0  0  0  0  0  0  0
    7.6100   13.4930   22.5910 O   0  0  0  0  0  0  0  0  0  0  0  0
    8.4900   13.5020   24.6570 N   0  0  0  0  0  0  0  0  0  0  0  0
    8.1220   12.1710   24.9330 C   0  0  0  0  0  0  0  0  0  0  0  0
    7.1280   11.8000   25.8270 C   0  0  0  0  0  0  0  0  0  0  0  0
    6.7660   10.4700   25.9250 C   0  0  0  0  0  0  0  0  0  0  0  0
    7.4110    9.5140   25.1520 C   0  0  0  0  0  0  0  0  0  0  0  0
    8.7790   11.2030   24.1780 C   0  0  0  0  0  0  0  0  0  0  0  0
    8.4360    9.8640   24.2820 C   0  0  0  0  0  0  0  0  0  0  0  0
    9.1570    8.8180   23.4660 C   0  0  0  0  0  0  0  0  0  0  0  0
 19 18  1  0
 18 16  2  0
 16 15  1  0
 15 14  2  0
 14 13  1  0
 13 12  1  0
 12 10  1  0
 11 10  2  0
 10  9  1  0
  9  7  1  0
  7  6  1  0
  6  5  1  0
  5  4  1  0
  4  2  1  6
  3  2  1  0
  2  1  2  0
  8  4  1  0
  9  8  1  0
 17 13  2  0
 18 17  1  0
M  END
$$$$
