A71EV2A-x4365_A_201_2_A71EV2A-x0526+A+147+1__LIG
     RDKit          3D

 22 24  0  0  0  0  0  0  0  0999 V2000
    7.4980   13.5320   22.8470 O   0  0  0  0  0  0  0  0  0  0  0  0
    8.4300   13.9360   23.5340 C   0  0  0  0  0  0  0  0  0  0  0  0
    9.1080   15.0620   23.2460 N   0  0  0  0  0  0  0  0  0  0  0  0
   10.2270   15.6010   24.0320 C   0  0  0  0  0  0  0  0  0  0  0  0
   11.5380   15.4170   23.2690 C   0  0  0  0  0  0  0  0  0  0  0  0
   11.4190   15.9620   21.8440 C   0  0  0  0  0  0  0  0  0  0  0  0
    8.9500   15.6800   21.9290 C   0  0  0  0  0  0  0  0  0  0  0  0
   10.2030   15.3540   21.1170 C   0  0  1  0  0  0  0  0  0  0  0  0
   10.1050   15.8240   19.6770 C   0  0  0  0  0  0  0  0  0  0  0  0
    9.7750   16.9800   19.4060 O   0  0  0  0  0  0  0  0  0  0  0  0
   10.3880   14.9170   18.7530 N   0  0  0  0  0  0  0  0  0  0  0  0
    8.9660   13.1410   24.7060 C   0  0  0  0  0  0  0  0  0  0  0  0
    8.2370   11.8300   24.8140 C   0  0  0  0  0  0  0  0  0  0  0  0
    7.0890   11.7230   25.5930 C   0  0  0  0  0  0  0  0  0  0  0  0
    6.5760   12.8890   26.1040 O   0  0  0  0  0  0  0  0  0  0  0  0
    5.7030   12.7420   27.2530 C   0  0  0  0  0  0  0  0  0  0  0  0
    4.7570   11.5970   27.0770 C   0  0  0  0  0  0  0  0  0  0  0  0
    5.3680   10.3630   26.6020 O   0  0  0  0  0  0  0  0  0  0  0  0
    6.4590   10.4970   25.7800 C   0  0  0  0  0  0  0  0  0  0  0  0
    6.9590    9.3670   25.1540 C   0  0  0  0  0  0  0  0  0  0  0  0
    8.0870    9.4670   24.3560 C   0  0  0  0  0  0  0  0  0  0  0  0
    8.7220   10.6850   24.1860 C   0  0  0  0  0  0  0  0  0  0  0  0
 11  9  1  0
 10  9  2  0
  8  9  1  6
  8  6  1  0
  6  5  1  0
  5  4  1  0
  4  3  1  0
  3  2  1  0
  2  1  2  0
 12  2  1  0
 13 12  1  0
 13 22  1  0
 22 21  2  0
 21 20  1  0
 20 19  2  0
 19 14  1  0
 14 13  2  0
 15 14  1  0
 16 15  1  0
 17 16  1  0
 18 17  1  0
 19 18  1  0
  7  3  1  0
  8  7  1  0
M  END
$$$$
