A71EV2A-x4028_A_201_2_A71EV2A-x0526+A+147+1__LIG
     RDKit          3D

 24 25  0  0  0  0  0  0  0  0999 V2000
    9.6880   16.9440   19.4980 O   0  0  0  0  0  0  0  0  0  0  0  0
   10.1070   15.7970   19.7110 C   0  0  0  0  0  0  0  0  0  0  0  0
   10.5280   14.9930   18.7480 N   0  0  0  0  0  0  0  0  0  0  0  0
   10.1920   15.2450   21.1250 C   0  0  1  0  0  0  0  0  0  0  0  0
   11.1940   16.0500   21.9720 C   0  0  0  0  0  0  0  0  0  0  0  0
   11.2550   15.5620   23.4250 C   0  0  0  0  0  0  0  0  0  0  0  0
    9.8690   15.5100   24.0400 C   0  0  0  0  0  0  0  0  0  0  0  0
    8.8310   15.3240   21.8200 C   0  0  0  0  0  0  0  0  0  0  0  0
    8.9410   14.7690   23.1720 N   0  0  0  0  0  0  0  0  0  0  0  0
    8.2380   13.6700   23.5180 C   0  0  0  0  0  0  0  0  0  0  0  0
    7.4010   13.1760   22.7790 O   0  0  0  0  0  0  0  0  0  0  0  0
    8.5340   13.0950   24.8910 C   0  0  0  0  0  0  0  0  0  0  0  0
    7.5990   11.9670   25.2590 C   0  0  0  0  0  0  0  0  0  0  0  0
    7.8520   10.6680   24.8160 C   0  0  0  0  0  0  0  0  0  0  0  0
    8.9600   10.5380   24.0220 O   0  0  0  0  0  0  0  0  0  0  0  0
    9.2840    9.2280   23.5290 C   0  0  0  0  0  0  0  0  0  0  0  0
    6.5330   12.1690   26.1350 C   0  0  0  0  0  0  0  0  0  0  0  0
    5.7310   11.1240   26.5810 C   0  0  0  0  0  0  0  0  0  0  0  0
    4.5980   11.3900   27.5240 C   0  0  0  0  0  0  0  0  0  0  0  0
    5.0090   11.6410   28.7420 F   0  0  0  0  0  0  0  0  0  0  0  0
    3.7380   10.3840   27.6430 F   0  0  0  0  0  0  0  0  0  0  0  0
    3.8640   12.4200   27.1810 F   0  0  0  0  0  0  0  0  0  0  0  0
    6.0130    9.8400   26.1330 C   0  0  0  0  0  0  0  0  0  0  0  0
    7.0600    9.6110   25.2500 C   0  0  0  0  0  0  0  0  0  0  0  0
 16 15  1  0
 15 14  1  0
 14 24  2  0
 24 23  1  0
 23 18  2  0
 19 18  1  0
 22 19  1  0
 21 19  1  0
 20 19  1  0
 18 17  1  0
 17 13  2  0
 14 13  1  0
 13 12  1  0
 12 10  1  0
 11 10  2  0
 10  9  1  0
  9  7  1  0
  7  6  1  0
  6  5  1  0
  5  4  1  0
  4  2  1  6
  3  2  1  0
  2  1  2  0
  8  4  1  0
  9  8  1  0
M  END
$$$$
