A71EV2A-x3191_A_201_1_A71EV2A-x0526+A+147+1__LIG
     RDKit          3D

 21 23  0  0  0  0  0  0  0  0999 V2000
    7.4760   13.4410   22.8290 O   0  0  0  0  0  0  0  0  0  0  0  0
    8.2500   13.9860   23.6020 C   0  0  0  0  0  0  0  0  0  0  0  0
    9.0620   14.9920   23.2050 N   0  0  0  0  0  0  0  0  0  0  0  0
   10.0040   15.7220   24.0700 C   0  0  0  0  0  0  0  0  0  0  0  0
   11.4040   15.7070   23.4850 C   0  0  0  0  0  0  0  0  0  0  0  0
   11.4000   16.1540   22.0210 C   0  0  0  0  0  0  0  0  0  0  0  0
    9.0050   15.4960   21.8300 C   0  0  0  0  0  0  0  0  0  0  0  0
   10.3800   15.3740   21.1740 C   0  0  1  0  0  0  0  0  0  0  0  0
   10.3270   15.8980   19.7490 C   0  0  0  0  0  0  0  0  0  0  0  0
    9.9870   17.0650   19.5050 O   0  0  0  0  0  0  0  0  0  0  0  0
   10.6890   15.0420   18.8110 N   0  0  0  0  0  0  0  0  0  0  0  0
    8.2980   13.5990   25.0710 C   0  0  0  0  0  0  0  0  0  0  0  0
    7.7880   12.1950   25.3060 C   0  0  0  0  0  0  0  0  0  0  0  0
    8.3290   11.0900   24.6160 C   0  0  0  0  0  0  0  0  0  0  0  0
    9.3990   10.8600   23.6780 C   0  0  0  0  0  0  0  0  0  0  0  0
    9.4160    9.5500   23.4400 C   0  0  0  0  0  0  0  0  0  0  0  0
    8.4340    8.8790   24.1400 O   0  0  0  0  0  0  0  0  0  0  0  0
    7.7760    9.8420   24.8630 C   0  0  0  0  0  0  0  0  0  0  0  0
    6.7250    9.6170   25.7350 C   0  0  0  0  0  0  0  0  0  0  0  0
    6.2200   10.7060   26.4230 C   0  0  0  0  0  0  0  0  0  0  0  0
    6.7530   11.9710   26.2210 C   0  0  0  0  0  0  0  0  0  0  0  0
 11  9  1  0
 10  9  2  0
  8  9  1  6
  8  6  1  0
  6  5  1  0
  5  4  1  0
  4  3  1  0
  3  2  1  0
  2  1  2  0
 12  2  1  0
 13 12  1  0
 13 21  1  0
 21 20  2  0
 20 19  1  0
 19 18  2  0
 18 17  1  0
 17 16  1  0
 16 15  2  0
 15 14  1  0
 14 13  2  0
 18 14  1  0
  7  3  1  0
  8  7  1  0
M  END
$$$$
