A71EV2A-x2629_A_246_1_A71EV2A-x0526+A+147+1__LIG
     RDKit          3D

 18 19  0  0  0  0  0  0  0  0999 V2000
   10.3190   14.9140   22.9160 O   0  0  0  0  0  0  0  0  0  0  0  0
   10.7710   13.9230   22.3430 C   0  0  0  0  0  0  0  0  0  0  0  0
   10.4900   12.6300   22.7050 N   0  0  0  0  0  0  0  0  0  0  0  0
    9.6590   12.1920   23.7680 C   0  0  0  0  0  0  0  0  0  0  0  0
    9.1130   13.0320   24.7400 C   0  0  0  0  0  0  0  0  0  0  0  0
    8.2240   12.5180   25.6720 C   0  0  0  0  0  0  0  0  0  0  0  0
    7.8930   11.1740   25.6630 C   0  0  0  0  0  0  0  0  0  0  0  0
    8.4520   10.3170   24.7250 C   0  0  0  0  0  0  0  0  0  0  0  0
    9.3230   10.8260   23.7710 C   0  0  0  0  0  0  0  0  0  0  0  0
    9.8560   10.1110   22.7330 O   0  0  0  0  0  0  0  0  0  0  0  0
    9.8410    8.6850   22.8080 C   0  0  0  0  0  0  0  0  0  0  0  0
   11.6070   13.9940   21.2580 N   0  0  0  0  0  0  0  0  0  0  0  0
   12.1070   15.1650   20.6470 C   0  0  0  0  0  0  0  0  0  0  0  0
   12.5550   16.2260   21.4320 C   0  0  0  0  0  0  0  0  0  0  0  0
   13.1270   17.3250   20.9300 N   0  0  0  0  0  0  0  0  0  0  0  0
   13.2650   17.3960   19.6020 C   0  0  0  0  0  0  0  0  0  0  0  0
   12.8410   16.4060   18.7380 C   0  0  0  0  0  0  0  0  0  0  0  0
   12.2510   15.2720   19.2710 C   0  0  0  0  0  0  0  0  0  0  0  0
 11 10  1  0
 10  9  1  0
  9  8  1  0
  8  7  2  0
  7  6  1  0
  6  5  2  0
  5  4  1  0
  9  4  2  0
  4  3  1  0
  3  2  1  0
  2  1  2  0
 12  2  1  0
 13 12  1  0
 13 18  2  0
 18 17  1  0
 17 16  2  0
 16 15  1  0
 15 14  2  0
 14 13  1  0
M  END
$$$$
