A71EV2A-x3189_A_201_1_A71EV2A-x0526+A+147+1__LIG
     RDKit          3D

 22 24  0  0  0  0  0  0  0  0999 V2000
   10.0140   16.8220   19.5270 O   0  0  0  0  0  0  0  0  0  0  0  0
   10.4850   15.7050   19.7380 C   0  0  0  0  0  0  0  0  0  0  0  0
   10.9960   14.9520   18.7780 N   0  0  0  0  0  0  0  0  0  0  0  0
   10.5320   15.1260   21.1410 C   0  0  1  0  0  0  0  0  0  0  0  0
   11.6230   15.8190   21.9740 C   0  0  0  0  0  0  0  0  0  0  0  0
   11.6440   15.3140   23.4160 C   0  0  0  0  0  0  0  0  0  0  0  0
   10.2780   15.4720   24.0510 C   0  0  0  0  0  0  0  0  0  0  0  0
    9.1810   15.2990   21.8430 C   0  0  0  0  0  0  0  0  0  0  0  0
    9.2440   14.8240   23.2300 N   0  0  0  0  0  0  0  0  0  0  0  0
    8.3710   13.9040   23.6990 C   0  0  0  0  0  0  0  0  0  0  0  0
    7.6170   13.2840   22.9560 O   0  0  0  0  0  0  0  0  0  0  0  0
    8.3360   13.6900   25.2020 C   0  0  0  0  0  0  0  0  0  0  0  0
    7.6570   12.3910   25.5680 C   0  0  0  0  0  0  0  0  0  0  0  0
    6.6030   12.3820   26.4810 C   0  0  0  0  0  0  0  0  0  0  0  0
    5.9700   11.2040   26.8430 C   0  0  0  0  0  0  0  0  0  0  0  0
    6.3700    9.9980   26.2950 C   0  0  0  0  0  0  0  0  0  0  0  0
    7.4240    9.9660   25.3680 C   0  0  0  0  0  0  0  0  0  0  0  0
    8.0700   11.1610   25.0080 C   0  0  0  0  0  0  0  0  0  0  0  0
    9.0950   10.7550   24.0830 C   0  0  0  0  0  0  0  0  0  0  0  0
    7.9770    8.8920   24.7280 N   0  0  0  0  0  0  0  0  0  0  0  0
    8.9800    9.4280   23.9760 N   0  0  0  0  0  0  0  0  0  0  0  0
    9.8000    8.5500   23.1430 C   0  0  0  0  0  0  0  0  0  0  0  0
 22 21  1  0
 21 19  1  0
 19 18  2  0
 18 13  1  0
 13 12  1  0
 12 10  1  0
 11 10  2  0
 10  9  1  0
  9  7  1  0
  7  6  1  0
  6  5  1  0
  5  4  1  0
  4  2  1  6
  3  2  1  0
  2  1  2  0
  8  4  1  0
  9  8  1  0
 14 13  2  0
 15 14  1  0
 16 15  2  0
 17 16  1  0
 18 17  1  0
 20 17  2  0
 21 20  1  0
M  END
$$$$
