A71EV2A-x4333_A_201_2_A71EV2A-x0526+A+147+1__LIG
     RDKit          3D

 19 20  0  0  0  0  0  0  0  0999 V2000
    9.8940   16.6510   19.7370 O   0  0  0  0  0  0  0  0  0  0  0  0
   10.3910   15.5360   19.9040 C   0  0  0  0  0  0  0  0  0  0  0  0
   10.8560   14.8070   18.9040 N   0  0  0  0  0  0  0  0  0  0  0  0
   10.4970   14.9210   21.2900 C   0  0  1  0  0  0  0  0  0  0  0  0
   11.6170   15.5710   22.1160 C   0  0  0  0  0  0  0  0  0  0  0  0
   11.7160   14.9590   23.5160 C   0  0  0  0  0  0  0  0  0  0  0  0
   10.3630   14.9740   24.2260 C   0  0  0  0  0  0  0  0  0  0  0  0
    9.1770   15.0000   22.0650 C   0  0  0  0  0  0  0  0  0  0  0  0
    9.3210   14.3700   23.3810 N   0  0  0  0  0  0  0  0  0  0  0  0
    8.5860   13.2880   23.7100 C   0  0  0  0  0  0  0  0  0  0  0  0
    7.6700   12.8920   23.0020 O   0  0  0  0  0  0  0  0  0  0  0  0
    8.9860   12.5630   24.9870 C   0  0  0  0  0  0  0  0  0  0  0  0
    7.9970   11.4910   25.4010 C   0  0  0  0  0  0  0  0  0  0  0  0
    8.0680   10.1640   24.8990 C   0  0  0  0  0  0  0  0  0  0  0  0
    9.1260    9.7430   23.9220 C   0  0  0  0  0  0  0  0  0  0  0  0
    6.9790   11.7790   26.3060 C   0  0  0  0  0  0  0  0  0  0  0  0
    6.0780   10.7970   26.6740 C   0  0  0  0  0  0  0  0  0  0  0  0
    6.2210    9.5400   26.1310 C   0  0  0  0  0  0  0  0  0  0  0  0
    7.1940    9.2140   25.2660 N   0  0  0  0  0  0  0  0  0  0  0  0
 15 14  1  0
 14 19  2  0
 19 18  1  0
 18 17  2  0
 17 16  1  0
 16 13  2  0
 14 13  1  0
 13 12  1  0
 12 10  1  0
 11 10  2  0
 10  9  1  0
  9  7  1  0
  7  6  1  0
  6  5  1  0
  5  4  1  0
  4  2  1  6
  3  2  1  0
  2  1  2  0
  8  4  1  0
  9  8  1  0
M  END
$$$$
