A71EV2A-x4336_A_201_2_A71EV2A-x0526+A+147+1__LIG
     RDKit          3D

 20 21  0  0  0  0  0  0  0  0999 V2000
   10.0900   11.9030   23.4210 Cl  0  0  0  0  0  0  0  0  0  0  0  0
    8.7340   11.3380   24.3270 C   0  0  0  0  0  0  0  0  0  0  0  0
    8.4290    9.9830   24.3510 C   0  0  0  0  0  0  0  0  0  0  0  0
    9.4280    8.8410   23.5100 Cl  0  0  0  0  0  0  0  0  0  0  0  0
    7.3450    9.5170   25.0700 C   0  0  0  0  0  0  0  0  0  0  0  0
    6.5760   10.4140   25.7930 C   0  0  0  0  0  0  0  0  0  0  0  0
    6.8780   11.7670   25.7770 C   0  0  0  0  0  0  0  0  0  0  0  0
    7.9500   12.2540   25.0320 C   0  0  0  0  0  0  0  0  0  0  0  0
    8.1760   13.7470   24.9400 C   0  0  0  0  0  0  0  0  0  0  0  0
    8.0410   14.2310   23.5090 C   0  0  0  0  0  0  0  0  0  0  0  0
    7.2840   13.6700   22.7260 O   0  0  0  0  0  0  0  0  0  0  0  0
    8.8310   15.2600   23.1300 N   0  0  0  0  0  0  0  0  0  0  0  0
    9.8160   15.9420   23.9840 C   0  0  0  0  0  0  0  0  0  0  0  0
   11.2180   15.8220   23.3940 C   0  0  0  0  0  0  0  0  0  0  0  0
   11.2420   16.2510   21.9210 C   0  0  0  0  0  0  0  0  0  0  0  0
    8.8010   15.7720   21.7580 C   0  0  0  0  0  0  0  0  0  0  0  0
   10.1600   15.5350   21.0950 C   0  0  1  0  0  0  0  0  0  0  0  0
   10.1760   15.9810   19.6420 C   0  0  0  0  0  0  0  0  0  0  0  0
    9.8460   17.1260   19.3230 O   0  0  0  0  0  0  0  0  0  0  0  0
   10.5570   15.0690   18.7610 N   0  0  0  0  0  0  0  0  0  0  0  0
 20 18  1  0
 19 18  2  0
 17 18  1  6
 17 15  1  0
 15 14  1  0
 14 13  1  0
 13 12  1  0
 12 10  1  0
 11 10  2  0
 10  9  1  0
  9  8  1  0
  8  7  2  0
  7  6  1  0
  6  5  2  0
  5  3  1  0
  4  3  1  0
  3  2  2  0
  8  2  1  0
  2  1  1  0
 16 12  1  0
 17 16  1  0
M  END
$$$$
