A71EV2A-x3410_A_201_1_A71EV2A-x0526+A+147+1__LIG
     RDKit          3D

 21 23  0  0  0  0  0  0  0  0999 V2000
   11.2890   14.6570   24.8220 O   0  0  0  0  0  0  0  0  0  0  0  0
   10.8740   13.8610   23.9820 C   0  0  0  0  0  0  0  0  0  0  0  0
    9.7570   12.9250   24.3070 C   0  0  0  0  0  0  0  0  0  0  0  0
    9.7990   11.6330   23.7860 C   0  0  0  0  0  0  0  0  0  0  0  0
    8.7400   13.2910   25.1930 C   0  0  0  0  0  0  0  0  0  0  0  0
    7.7720   12.3830   25.5890 C   0  0  0  0  0  0  0  0  0  0  0  0
    7.8240   11.0710   25.1240 C   0  0  0  0  0  0  0  0  0  0  0  0
    8.8390   10.7250   24.2120 C   0  0  0  0  0  0  0  0  0  0  0  0
    8.6690    9.4080   23.9350 N   0  0  0  0  0  0  0  0  0  0  0  0
    9.5190    8.5520   23.1200 C   0  0  0  0  0  0  0  0  0  0  0  0
    7.5920    8.8790   24.6010 N   0  0  0  0  0  0  0  0  0  0  0  0
    7.0870    9.8600   25.3230 C   0  0  0  0  0  0  0  0  0  0  0  0
    5.9000    9.6220   26.2250 C   0  0  0  0  0  0  0  0  0  0  0  0
   11.3840   13.7950   22.7470 N   0  0  0  0  0  0  0  0  0  0  0  0
   12.3930   14.7590   22.3090 C   0  0  0  0  0  0  0  0  0  0  0  0
   12.3920   14.9220   20.7990 C   0  0  0  0  0  0  0  0  0  0  0  0
   11.1420   15.5960   20.3480 C   0  0  0  0  0  0  0  0  0  0  0  0
   10.4920   16.5450   21.1340 N   0  0  0  0  0  0  0  0  0  0  0  0
    9.4480   16.8490   20.4520 C   0  0  0  0  0  0  0  0  0  0  0  0
    9.3360   16.2170   19.2630 O   0  0  0  0  0  0  0  0  0  0  0  0
   10.4400   15.4210   19.2190 C   0  0  0  0  0  0  0  0  0  0  0  0
 13 12  1  0
 12 11  2  0
 11  9  1  0
 10  9  1  0
  9  8  1  0
  8  4  2  0
  4  3  1  0
  3  2  1  0
  2  1  2  0
 14  2  1  0
 15 14  1  0
 16 15  1  0
 17 16  1  0
 17 21  2  0
 21 20  1  0
 20 19  1  0
 19 18  2  0
 18 17  1  0
  5  3  2  0
  6  5  1  0
  7  6  2  0
 12  7  1  0
  8  7  1  0
M  END
$$$$
