ASAP-0035404_DF003
     RDKit          3D

 23 25  0  0  0  0  0  0  0  0999 V2000
   10.3214    9.5161   23.3612 S   0  0  0  0  0  0  0  0  0  0  0  0
    9.0119    9.8917   24.4993 C   0  0  0  0  0  0  0  0  0  0  0  0
    8.7376   11.2139   24.8319 C   0  0  0  0  0  0  0  0  0  0  0  0
    7.7148   11.5156   25.7209 C   0  0  0  0  0  0  0  0  0  0  0  0
    6.9908   10.4584   26.2548 C   0  0  0  0  0  0  0  0  0  0  0  0
    7.2549    9.1467   25.9325 C   0  0  0  0  0  0  0  0  0  0  0  0
    6.3630    8.3405   26.6214 N   0  0  0  0  0  0  0  0  0  0  0  0
    5.5423    9.1629   27.3753 C   0  0  0  0  0  0  0  0  0  0  0  0
    5.8945   10.4644   27.1778 C   0  0  0  0  0  0  0  0  0  0  0  0
    8.2777    8.8434   25.0414 C   0  0  0  0  0  0  0  0  0  0  0  0
    9.5416   12.3587   24.2372 C   0  0  0  0  0  0  0  0  0  0  0  0
    9.2152   12.6170   22.7780 C   0  0  0  0  0  0  0  0  0  0  0  0
    8.4688   11.8846   22.1403 O   0  0  0  0  0  0  0  0  0  0  0  0
    9.8344   13.6737   22.2125 N   0  0  0  0  0  0  0  0  0  0  0  0
    9.6098   14.0015   20.8004 C   0  0  0  0  0  0  0  0  0  0  0  0
   10.9404   14.0198   20.0461 C   0  0  1  0  0  0  0  0  0  0  0  0
   10.8072   14.3006   18.5605 C   0  0  0  0  0  0  0  0  0  0  0  0
   10.2393   15.3137   18.1515 O   0  0  0  0  0  0  0  0  0  0  0  0
   11.3815   13.4220   17.7519 N   0  0  0  0  0  0  0  0  0  0  0  0
   11.8457   15.0504   20.7288 C   0  0  0  0  0  0  0  0  0  0  0  0
   12.0722   14.6950   22.1970 C   0  0  0  0  0  0  0  0  0  0  0  0
   10.7515   14.5783   22.9220 C   0  0  0  0  0  0  0  0  0  0  0  0
   10.2606    7.7332   23.2105 C   0  0  0  0  0  0  0  0  0  0  0  0
  1  2  1  0
  1 23  1  0
  2  3  2  0
  2 10  1  0
  3  4  1  0
  3 11  1  0
  4  5  2  0
  5  6  1  0
  5  9  1  0
  6  7  1  0
  6 10  2  0
  7  8  1  0
  8  9  2  0
 11 12  1  0
 12 13  2  0
 12 14  1  0
 14 15  1  0
 14 22  1  0
 15 16  1  0
 16 17  1  6
 16 20  1  0
 17 18  2  0
 17 19  1  0
 20 21  1  0
 21 22  1  0
M  END
