ASAP-0035404_DF007
     RDKit          3D

 22 23  0  0  0  0  0  0  0  0999 V2000
    5.4014   11.1653   27.4701 Br  0  0  0  0  0  0  0  0  0  0  0  0
    6.8609   10.6548   26.2656 C   0  0  0  0  0  0  0  0  0  0  0  0
    7.0856    9.3086   25.9954 C   0  0  0  0  0  0  0  0  0  0  0  0
    6.2569    8.3008   26.5928 N   0  0  0  0  0  0  0  0  0  0  0  0
    8.1223    8.9500   25.1400 C   0  0  0  0  0  0  0  0  0  0  0  0
    8.9210    9.9330   24.5651 C   0  0  0  0  0  0  0  0  0  0  0  0
   10.2439    9.4755   23.4737 S   0  0  0  0  0  0  0  0  0  0  0  0
   10.0715    7.7010   23.3105 C   0  0  0  0  0  0  0  0  0  0  0  0
    8.6893   11.2777   24.8404 C   0  0  0  0  0  0  0  0  0  0  0  0
    7.6547   11.6445   25.6949 C   0  0  0  0  0  0  0  0  0  0  0  0
    9.5469   12.3720   24.2256 C   0  0  0  0  0  0  0  0  0  0  0  0
    9.2232   12.6287   22.7654 C   0  0  0  0  0  0  0  0  0  0  0  0
    8.4774   11.8961   22.1273 O   0  0  0  0  0  0  0  0  0  0  0  0
    9.8443   13.6842   22.1997 N   0  0  0  0  0  0  0  0  0  0  0  0
    9.6226   14.0103   20.7869 C   0  0  0  0  0  0  0  0  0  0  0  0
   10.9545   14.0267   20.0348 C   0  0  1  0  0  0  0  0  0  0  0  0
   10.8243   14.3057   18.5487 C   0  0  0  0  0  0  0  0  0  0  0  0
   10.2597   15.3198   18.1374 O   0  0  0  0  0  0  0  0  0  0  0  0
   11.3972   13.4244   17.7422 N   0  0  0  0  0  0  0  0  0  0  0  0
   11.8593   15.0573   20.7179 C   0  0  0  0  0  0  0  0  0  0  0  0
   12.0829   14.7037   22.1870 C   0  0  0  0  0  0  0  0  0  0  0  0
   10.7608   14.5890   22.9098 C   0  0  0  0  0  0  0  0  0  0  0  0
  1  2  1  0
  2  3  2  0
  2 10  1  0
  3  4  1  0
  3  5  1  0
  5  6  2  0
  6  7  1  0
  6  9  1  0
  7  8  1  0
  9 10  2  0
  9 11  1  0
 11 12  1  0
 12 13  2  0
 12 14  1  0
 14 15  1  0
 14 22  1  0
 15 16  1  0
 16 17  1  6
 16 20  1  0
 17 18  2  0
 17 19  1  0
 20 21  1  0
 21 22  1  0
M  END
