A71EV2A-x3324_A_201_1_A71EV2A-x0526+A+147+1__LIG
     RDKit          3D

 25 27  0  0  0  0  0  0  0  0999 V2000
   15.2960   20.4300   19.0570 O   0  0  0  0  0  0  0  0  0  0  0  0
   14.6280   19.6850   18.0250 S   0  0  0  0  0  0  0  0  0  0  0  0
   13.7080   20.3950   17.1740 O   0  0  0  0  0  0  0  0  0  0  0  0
   15.8280   18.9020   17.0240 C   0  0  0  0  0  0  0  0  0  0  0  0
   13.7560   18.3470   18.7830 C   0  0  0  0  0  0  0  0  0  0  0  0
   13.3130   17.2920   18.0060 C   0  0  0  0  0  0  0  0  0  0  0  0
   12.5440   16.3000   18.5860 C   0  0  0  0  0  0  0  0  0  0  0  0
   13.4620   18.3960   20.1340 C   0  0  0  0  0  0  0  0  0  0  0  0
   12.7050   17.3850   20.6990 C   0  0  0  0  0  0  0  0  0  0  0  0
   12.2330   16.3280   19.9350 C   0  0  0  0  0  0  0  0  0  0  0  0
   11.3760   15.2480   20.5510 C   0  0  0  0  0  0  0  0  0  0  0  0
   11.8890   14.7640   21.8820 C   0  0  0  0  0  0  0  0  0  0  0  0
   11.2300   13.5260   22.2830 N   0  0  0  0  0  0  0  0  0  0  0  0
   10.4250   13.4790   23.3390 C   0  0  0  0  0  0  0  0  0  0  0  0
   10.1990   14.4580   24.0590 O   0  0  0  0  0  0  0  0  0  0  0  0
    9.7670   12.1600   23.6130 C   0  0  0  0  0  0  0  0  0  0  0  0
   10.1230   11.0620   22.9520 N   0  0  0  0  0  0  0  0  0  0  0  0
    8.7580   11.8660   24.5870 C   0  0  0  0  0  0  0  0  0  0  0  0
    8.5380   10.4880   24.4680 C   0  0  0  0  0  0  0  0  0  0  0  0
    9.3820   10.0420   23.4960 N   0  0  0  0  0  0  0  0  0  0  0  0
    9.6350    8.6700   23.0830 C   0  0  0  0  0  0  0  0  0  0  0  0
    7.5810    9.8290   25.2270 C   0  0  0  0  0  0  0  0  0  0  0  0
    6.8340   10.5790   26.1240 C   0  0  0  0  0  0  0  0  0  0  0  0
    7.0360   11.9500   26.2530 C   0  0  0  0  0  0  0  0  0  0  0  0
    7.9900   12.6030   25.4920 C   0  0  0  0  0  0  0  0  0  0  0  0
 21 20  1  0
 20 17  1  0
 17 16  2  0
 16 14  1  0
 15 14  2  0
 14 13  1  0
 13 12  1  0
 12 11  1  0
 11 10  1  0
 10  7  2  0
  7  6  1  0
  6  5  2  0
  5  2  1  0
  4  2  1  0
  3  2  2  0
  2  1  2  0
  8  5  1  0
  9  8  2  0
 10  9  1  0
 18 16  1  0
 18 25  2  0
 25 24  1  0
 24 23  2  0
 23 22  1  0
 22 19  2  0
 19 18  1  0
 20 19  1  0
M  END
$$$$
