A71EV2A-x3175_A_201_1_A71EV2A-x0526+A+147+1__LIG
     RDKit          3D

 20 22  0  0  0  0  0  0  0  0999 V2000
    5.8490   11.9250   27.0320 O   0  0  0  0  0  0  0  0  0  0  0  0
    6.1550   10.8460   26.5120 C   0  0  0  0  0  0  0  0  0  0  0  0
    7.2320   10.7570   25.4970 C   0  0  0  0  0  0  0  0  0  0  0  0
    8.0440   11.8380   24.9810 C   0  0  0  0  0  0  0  0  0  0  0  0
    8.1510   13.1970   25.2640 C   0  0  0  0  0  0  0  0  0  0  0  0
    9.0850   13.9710   24.5840 C   0  0  0  0  0  0  0  0  0  0  0  0
    9.9100   13.4050   23.6200 C   0  0  0  0  0  0  0  0  0  0  0  0
    9.8220   12.0530   23.3210 C   0  0  0  0  0  0  0  0  0  0  0  0
    8.8950   11.2800   24.0110 C   0  0  0  0  0  0  0  0  0  0  0  0
    8.6420    9.9230   23.9520 N   0  0  0  0  0  0  0  0  0  0  0  0
    9.3530    8.9610   23.1210 C   0  0  0  0  0  0  0  0  0  0  0  0
    7.6440    9.6250   24.8410 C   0  0  0  0  0  0  0  0  0  0  0  0
    5.5630    9.6940   26.8410 N   0  0  0  0  0  0  0  0  0  0  0  0
    4.5380    9.6480   27.8620 C   0  0  0  0  0  0  0  0  0  0  0  0
    5.0210    9.1290   29.1660 C   0  0  0  0  0  0  0  0  0  0  0  0
    4.5430    8.1960   30.0070 C   0  0  0  0  0  0  0  0  0  0  0  0
    6.1130    9.7250   29.6940 O   0  0  0  0  0  0  0  0  0  0  0  0
    6.3480    9.1680   30.9820 N   0  0  0  0  0  0  0  0  0  0  0  0
    5.3760    8.2340   31.1340 C   0  0  0  0  0  0  0  0  0  0  0  0
    5.2820    7.3980   32.3740 C   0  0  0  0  0  0  0  0  0  0  0  0
 20 19  1  0
 19 16  1  0
 16 15  2  0
 15 14  1  0
 14 13  1  0
 13  2  1  0
  2  1  2  0
  3  2  1  0
  3 12  2  0
 12 10  1  0
 11 10  1  0
 10  9  1  0
  9  8  1  0
  8  7  2  0
  7  6  1  0
  6  5  2  0
  5  4  1  0
  4  3  1  0
  9  4  2  0
 17 15  1  0
 18 17  1  0
 19 18  2  0
M  END
$$$$
