A71EV2A-x2972_A_201_1_A71EV2A-x0526+A+147+1__LIG
     RDKit          3D

 19 21  0  0  0  0  0  0  0  0999 V2000
   10.5760   14.1040   24.7610 O   0  0  0  0  0  0  0  0  0  0  0  0
   10.4920   13.2710   23.8610 C   0  0  0  0  0  0  0  0  0  0  0  0
    9.7140   11.9860   24.0760 C   0  0  0  0  0  0  0  0  0  0  0  0
   10.0270   10.8960   23.3830 N   0  0  0  0  0  0  0  0  0  0  0  0
    8.6330   11.7200   24.9940 C   0  0  0  0  0  0  0  0  0  0  0  0
    8.3290   10.3660   24.7890 C   0  0  0  0  0  0  0  0  0  0  0  0
    7.3330    9.7260   25.5130 C   0  0  0  0  0  0  0  0  0  0  0  0
    6.6340   10.4560   26.4630 C   0  0  0  0  0  0  0  0  0  0  0  0
    6.9200   11.7940   26.6770 C   0  0  0  0  0  0  0  0  0  0  0  0
    7.9130   12.4360   25.9490 C   0  0  0  0  0  0  0  0  0  0  0  0
    9.1950    9.9060   23.8420 N   0  0  0  0  0  0  0  0  0  0  0  0
    9.4030    8.5350   23.4020 C   0  0  0  0  0  0  0  0  0  0  0  0
   11.0800   13.4080   22.6670 N   0  0  0  0  0  0  0  0  0  0  0  0
   11.7200   14.6520   22.2720 C   0  0  0  0  0  0  0  0  0  0  0  0
   11.0930   15.2760   21.0650 C   0  0  0  0  0  0  0  0  0  0  0  0
   10.1180   16.2560   21.1930 N   0  0  0  0  0  0  0  0  0  0  0  0
    9.6910   16.4860   19.9580 C   0  0  0  0  0  0  0  0  0  0  0  0
   10.3490   15.7450   19.0570 N   0  0  0  0  0  0  0  0  0  0  0  0
   11.2480   14.9750   19.7470 C   0  0  0  0  0  0  0  0  0  0  0  0
 12 11  1  0
 11  4  1  0
  4  3  2  0
  3  2  1  0
  2  1  2  0
 13  2  1  0
 14 13  1  0
 15 14  1  0
 15 19  2  0
 19 18  1  0
 18 17  1  0
 17 16  2  0
 16 15  1  0
  5  3  1  0
  5 10  2  0
 10  9  1  0
  9  8  2  0
  8  7  1  0
  7  6  2  0
  6  5  1  0
 11  6  1  0
M  END
$$$$
